7

C          2.15654        1.10476        0.00325
C          0.66453        1.16379        0.01047
H          2.49135        0.42767        0.79244
H          2.56864        2.09987        0.18812
H          2.49749        0.74107       -0.96839
F          0.00000        0.00000        0.00000
O         -0.00000        2.18871       -0.00000
