8
Created by chemcoord http://chemcoord.readthedocs.io/
 C  0.000000  0.000000  0.000000
 C -1.031518 -0.983307  0.887571
 F -0.356670 -0.760570 -0.662740
 F -0.452180  0.838248 -0.487607
 F -0.212027 -1.015824  0.260882
 H -1.551213 -0.093162  0.600390
 H -1.704855 -0.191473  0.633595
 H -1.848482 -0.564682  0.337833