8
Created by chemcoord http://chemcoord.readthedocs.io/
 C  0.000000  0.000000  0.000000
 C  0.679360  0.621162 -1.404041
 F -0.356670 -0.760570 -0.662740
 F -0.585940 -0.173643 -0.878300
 F -0.392954  0.950797  0.294085
 H  0.827948  1.354490 -0.639145
 H  1.707354  0.756512 -1.139849
 H  0.520505 -0.288867 -1.943950