8

C          0.00000        0.00000        0.00000
C          1.67890       -0.00000        0.00000
H         -0.35667       -0.76057       -0.66274
H         -0.35667        0.95423       -0.32729
H         -0.35666       -0.19367        0.99005
H          2.03556        0.19367       -0.99005
H          2.03557       -0.95423        0.32729
H          2.03557        0.76056        0.66274
